<?xml version="1.0" encoding="utf-8"?>
	<edges xmlns:xsi="http://www.w3.org/2001/XMLSchema-instance" xsi:noNamespaceSchemaLocation="http://sumo.dlr.de/xsd/edges_file.xsd">
		<edge id="road_0_1_0" from="intersection_0_1" to="intersection_1_1" numLanes="3" speed="11.111" priority="-1"/>
		<edge id="road_1_0_1" from="intersection_1_0" to="intersection_1_1" numLanes="3" speed="11.111" priority="-1"/>
		<edge id="road_1_1_0" from="intersection_1_1" to="intersection_2_1" numLanes="3" speed="11.111" priority="-1"/>
		<edge id="road_1_1_1" from="intersection_1_1" to="intersection_1_2" numLanes="3" speed="11.111" priority="-1"/>
		<edge id="road_1_1_2" from="intersection_1_1" to="intersection_0_1" numLanes="3" speed="11.111" priority="-1"/>
		<edge id="road_1_1_3" from="intersection_1_1" to="intersection_1_0" numLanes="3" speed="11.111" priority="-1"/>
		<edge id="road_1_2_3" from="intersection_1_2" to="intersection_1_1" numLanes="3" speed="11.111" priority="-1"/>
		<edge id="road_2_0_1" from="intersection_2_0" to="intersection_2_1" numLanes="3" speed="11.111" priority="-1"/>
		<edge id="road_2_1_0" from="intersection_2_1" to="intersection_3_1" numLanes="3" speed="11.111" priority="-1"/>
		<edge id="road_2_1_1" from="intersection_2_1" to="intersection_2_2" numLanes="3" speed="11.111" priority="-1"/>
		<edge id="road_2_1_2" from="intersection_2_1" to="intersection_1_1" numLanes="3" speed="11.111" priority="-1"/>
		<edge id="road_2_1_3" from="intersection_2_1" to="intersection_2_0" numLanes="3" speed="11.111" priority="-1"/>
		<edge id="road_2_2_3" from="intersection_2_2" to="intersection_2_1" numLanes="3" speed="11.111" priority="-1"/>
		<edge id="road_3_0_1" from="intersection_3_0" to="intersection_3_1" numLanes="3" speed="11.111" priority="-1"/>
		<edge id="road_3_1_0" from="intersection_3_1" to="intersection_4_1" numLanes="3" speed="11.111" priority="-1"/>
		<edge id="road_3_1_1" from="intersection_3_1" to="intersection_3_2" numLanes="3" speed="11.111" priority="-1"/>
		<edge id="road_3_1_2" from="intersection_3_1" to="intersection_2_1" numLanes="3" speed="11.111" priority="-1"/>
		<edge id="road_3_1_3" from="intersection_3_1" to="intersection_3_0" numLanes="3" speed="11.111" priority="-1"/>
		<edge id="road_3_2_3" from="intersection_3_2" to="intersection_3_1" numLanes="3" speed="11.111" priority="-1"/>
		<edge id="road_4_1_2" from="intersection_4_1" to="intersection_3_1" numLanes="3" speed="11.111" priority="-1"/>
	</edges>
