<?xml version="1.0" encoding="utf-8"?>
<nodes xmlns:xsi="http://www.w3.org/2001/XMLSchema-instance" xsi:noNamespaceSchemaLocation="http://sumo.dlr.de/xsd/nodes_file.xsd">
	<node id="intersection_0_1" x="-300" y="0" type="priority"/>
	<node id="intersection_1_0" x="0" y="-300" type="priority"/>
	<node id="intersection_1_1" x="0" y="0" type="traffic_light_right_on_red"/>
	<node id="intersection_1_2" x="0" y="300" type="priority"/>
	<node id="intersection_2_0" x="300" y="-300" type="priority"/>
	<node id="intersection_2_1" x="300" y="0" type="traffic_light_right_on_red"/>
	<node id="intersection_2_2" x="300" y="300" type="priority"/>
	<node id="intersection_3_0" x="600" y="-300" type="priority"/>
	<node id="intersection_3_1" x="600" y="0" type="traffic_light_right_on_red"/>
	<node id="intersection_3_2" x="600" y="300" type="priority"/>
	<node id="intersection_4_1" x="900" y="0" type="priority"/>
</nodes>
