<?xml version="1.0" ?><routes xmlns:xsi="http://www.w3.org/2001/XMLSchema-instance" xsi:noNamespaceSchemaLocation="http://sumo.dlr.de/xsd/routes_file.xsd">
		<vType accel="2.0" decel="4.5" id="pkw" length="5.0" maxSpeed="11.111" minGap="2.5" width="2.0" carFollowModel="EIDM" laneChangeModel="DK2008"/>
		<vehicle depart="0" id="0" type="pkw">
			<route edges="road_0_1_0 road_1_1_0"/>
		</vehicle>
		<vehicle depart="3" id="1" type="pkw">
			<route edges="road_0_1_0 road_1_1_0"/>
		</vehicle>
		<vehicle depart="8" id="2" type="pkw">
			<route edges="road_0_1_0 road_1_1_0"/>
		</vehicle>
		<vehicle depart="11" id="3" type="pkw">
			<route edges="road_0_1_0 road_1_1_0"/>
		</vehicle>
		<vehicle depart="14" id="4" type="pkw">
			<route edges="road_1_0_1 road_1_1_1"/>
		</vehicle>
		<vehicle depart="16" id="5" type="pkw">
			<route edges="road_0_1_0 road_1_1_0"/>
		</vehicle>
		<vehicle depart="16" id="6" type="pkw">
			<route edges="road_1_2_3 road_1_1_3"/>
		</vehicle>
		<vehicle depart="17" id="7" type="pkw">
			<route edges="road_1_0_1 road_1_1_1"/>
		</vehicle>
		<vehicle depart="18" id="8" type="pkw">
			<route edges="road_1_0_1 road_1_1_1"/>
		</vehicle>
		<vehicle depart="19" id="9" type="pkw">
			<route edges="road_1_0_1 road_1_1_1"/>
		</vehicle>
		<vehicle depart="22" id="10" type="pkw">
			<route edges="road_0_1_0 road_1_1_0"/>
		</vehicle>
		<vehicle depart="24" id="11" type="pkw">
			<route edges="road_2_1_2 road_1_1_2"/>
		</vehicle>
		<vehicle depart="24" id="12" type="pkw">
			<route edges="road_2_1_2 road_1_1_3"/>
		</vehicle>
		<vehicle depart="24" id="13" type="pkw">
			<route edges="road_1_2_3 road_1_1_3"/>
		</vehicle>
		<vehicle depart="26" id="14" type="pkw">
			<route edges="road_0_1_0 road_1_1_0"/>
		</vehicle>
		<vehicle depart="30" id="15" type="pkw">
			<route edges="road_1_2_3 road_1_1_3"/>
		</vehicle>
		<vehicle depart="31" id="16" type="pkw">
			<route edges="road_0_1_0 road_1_1_0"/>
		</vehicle>
		<vehicle depart="34" id="17" type="pkw">
			<route edges="road_1_2_3 road_1_1_3"/>
		</vehicle>
		<vehicle depart="35" id="18" type="pkw">
			<route edges="road_0_1_0 road_1_1_0"/>
		</vehicle>
		<vehicle depart="35" id="19" type="pkw">
			<route edges="road_0_1_0 road_1_1_0"/>
		</vehicle>
		<vehicle depart="39" id="20" type="pkw">
			<route edges="road_1_0_1 road_1_1_1"/>
		</vehicle>
		<vehicle depart="39" id="21" type="pkw">
			<route edges="road_1_0_1 road_1_1_2"/>
		</vehicle>
		<vehicle depart="41" id="22" type="pkw">
			<route edges="road_1_0_1 road_1_1_1"/>
		</vehicle>
		<vehicle depart="41" id="23" type="pkw">
			<route edges="road_1_0_1 road_1_1_2"/>
		</vehicle>
		<vehicle depart="41" id="24" type="pkw">
			<route edges="road_0_1_0 road_1_1_0"/>
		</vehicle>
		<vehicle depart="43" id="25" type="pkw">
			<route edges="road_1_0_1 road_1_1_1"/>
		</vehicle>
		<vehicle depart="43" id="26" type="pkw">
			<route edges="road_1_0_1 road_1_1_2"/>
		</vehicle>
		<vehicle depart="43" id="27" type="pkw">
			<route edges="road_0_1_0 road_1_1_0"/>
		</vehicle>
		<vehicle depart="44" id="28" type="pkw">
			<route edges="road_1_2_3 road_1_1_3"/>
		</vehicle>
		<vehicle depart="45" id="29" type="pkw">
			<route edges="road_0_1_0 road_1_1_0"/>
		</vehicle>
		<vehicle depart="46" id="30" type="pkw">
			<route edges="road_1_2_3 road_1_1_3"/>
		</vehicle>
		<vehicle depart="46" id="31" type="pkw">
			<route edges="road_1_2_3 road_1_1_0"/>
		</vehicle>
		<vehicle depart="47" id="32" type="pkw">
			<route edges="road_1_0_1 road_1_1_1"/>
		</vehicle>
		<vehicle depart="48" id="33" type="pkw">
			<route edges="road_1_2_3 road_1_1_3"/>
		</vehicle>
		<vehicle depart="49" id="34" type="pkw">
			<route edges="road_1_0_1 road_1_1_1"/>
		</vehicle>
		<vehicle depart="52" id="35" type="pkw">
			<route edges="road_1_2_3 road_1_1_3"/>
		</vehicle>
		<vehicle depart="52" id="36" type="pkw">
			<route edges="road_1_0_1 road_1_1_1"/>
		</vehicle>
		<vehicle depart="55" id="37" type="pkw">
			<route edges="road_1_2_3 road_1_1_3"/>
		</vehicle>
		<vehicle depart="55" id="38" type="pkw">
			<route edges="road_1_0_1 road_1_1_1"/>
		</vehicle>
		<vehicle depart="56" id="39" type="pkw">
			<route edges="road_0_1_0 road_1_1_0"/>
		</vehicle>
		<vehicle depart="66" id="40" type="pkw">
			<route edges="road_1_0_1 road_1_1_1"/>
		</vehicle>
		<vehicle depart="67" id="41" type="pkw">
			<route edges="road_0_1_0 road_1_1_0"/>
		</vehicle>
		<vehicle depart="75" id="42" type="pkw">
			<route edges="road_0_1_0 road_1_1_0"/>
		</vehicle>
		<vehicle depart="75" id="43" type="pkw">
			<route edges="road_0_1_0 road_1_1_1"/>
		</vehicle>
		<vehicle depart="77" id="44" type="pkw">
			<route edges="road_0_1_0 road_1_1_0"/>
		</vehicle>
		<vehicle depart="78" id="45" type="pkw">
			<route edges="road_2_1_2 road_1_1_2"/>
		</vehicle>
		<vehicle depart="78" id="46" type="pkw">
			<route edges="road_2_1_2 road_1_1_2"/>
		</vehicle>
		<vehicle depart="79" id="47" type="pkw">
			<route edges="road_2_1_2 road_1_1_2"/>
		</vehicle>
		<vehicle depart="80" id="48" type="pkw">
			<route edges="road_2_1_2 road_1_1_2"/>
		</vehicle>
		<vehicle depart="83" id="49" type="pkw">
			<route edges="road_0_1_0 road_1_1_0"/>
		</vehicle>
		<vehicle depart="85" id="50" type="pkw">
			<route edges="road_2_1_2 road_1_1_2"/>
		</vehicle>
		<vehicle depart="93" id="51" type="pkw">
			<route edges="road_0_1_0 road_1_1_0"/>
		</vehicle>
		<vehicle depart="95" id="52" type="pkw">
			<route edges="road_0_1_0 road_1_1_0"/>
		</vehicle>
		<vehicle depart="100" id="53" type="pkw">
			<route edges="road_0_1_0 road_1_1_0"/>
		</vehicle>
		<vehicle depart="104" id="54" type="pkw">
			<route edges="road_0_1_0 road_1_1_0"/>
		</vehicle>
		<vehicle depart="107" id="55" type="pkw">
			<route edges="road_0_1_0 road_1_1_0"/>
		</vehicle>
		<vehicle depart="109" id="56" type="pkw">
			<route edges="road_1_0_1 road_1_1_1"/>
		</vehicle>
		<vehicle depart="109" id="57" type="pkw">
			<route edges="road_1_0_1 road_1_1_2"/>
		</vehicle>
		<vehicle depart="111" id="58" type="pkw">
			<route edges="road_0_1_0 road_1_1_0"/>
		</vehicle>
		<vehicle depart="115" id="59" type="pkw">
			<route edges="road_1_0_1 road_1_1_1"/>
		</vehicle>
		<vehicle depart="115" id="60" type="pkw">
			<route edges="road_1_0_1 road_1_1_2"/>
		</vehicle>
		<vehicle depart="115" id="61" type="pkw">
			<route edges="road_1_0_1 road_1_1_1"/>
		</vehicle>
		<vehicle depart="117" id="62" type="pkw">
			<route edges="road_0_1_0 road_1_1_0"/>
		</vehicle>
		<vehicle depart="120" id="63" type="pkw">
			<route edges="road_0_1_0 road_1_1_0"/>
		</vehicle>
		<vehicle depart="122" id="64" type="pkw">
			<route edges="road_0_1_0 road_1_1_0"/>
		</vehicle>
		<vehicle depart="122" id="65" type="pkw">
			<route edges="road_0_1_0 road_1_1_1"/>
		</vehicle>
		<vehicle depart="124" id="66" type="pkw">
			<route edges="road_1_0_1 road_1_1_1"/>
		</vehicle>
		<vehicle depart="126" id="67" type="pkw">
			<route edges="road_0_1_0 road_1_1_0"/>
		</vehicle>
		<vehicle depart="128" id="68" type="pkw">
			<route edges="road_2_1_2 road_1_1_2"/>
		</vehicle>
		<vehicle depart="131" id="69" type="pkw">
			<route edges="road_2_1_2 road_1_1_2"/>
		</vehicle>
		<vehicle depart="131" id="70" type="pkw">
			<route edges="road_1_2_3 road_1_1_3"/>
		</vehicle>
		<vehicle depart="133" id="71" type="pkw">
			<route edges="road_0_1_0 road_1_1_0"/>
		</vehicle>
		<vehicle depart="134" id="72" type="pkw">
			<route edges="road_2_1_2 road_1_1_2"/>
		</vehicle>
		<vehicle depart="134" id="73" type="pkw">
			<route edges="road_1_2_3 road_1_1_3"/>
		</vehicle>
		<vehicle depart="136" id="74" type="pkw">
			<route edges="road_2_1_2 road_1_1_2"/>
		</vehicle>
		<vehicle depart="136" id="75" type="pkw">
			<route edges="road_0_1_0 road_1_1_0"/>
		</vehicle>
		<vehicle depart="141" id="76" type="pkw">
			<route edges="road_0_1_0 road_1_1_0"/>
		</vehicle>
		<vehicle depart="144" id="77" type="pkw">
			<route edges="road_1_0_1 road_1_1_1"/>
		</vehicle>
		<vehicle depart="146" id="78" type="pkw">
			<route edges="road_0_1_0 road_1_1_0"/>
		</vehicle>
		<vehicle depart="151" id="79" type="pkw">
			<route edges="road_1_0_1 road_1_1_1"/>
		</vehicle>
		<vehicle depart="152" id="80" type="pkw">
			<route edges="road_1_0_1 road_1_1_1"/>
		</vehicle>
		<vehicle depart="153" id="81" type="pkw">
			<route edges="road_2_1_2 road_1_1_2"/>
		</vehicle>
		<vehicle depart="153" id="82" type="pkw">
			<route edges="road_0_1_0 road_1_1_0"/>
		</vehicle>
		<vehicle depart="154" id="83" type="pkw">
			<route edges="road_1_0_1 road_1_1_1"/>
		</vehicle>
		<vehicle depart="154" id="84" type="pkw">
			<route edges="road_1_2_3 road_1_1_3"/>
		</vehicle>
		<vehicle depart="154" id="85" type="pkw">
			<route edges="road_2_1_2 road_1_1_2"/>
		</vehicle>
		<vehicle depart="155" id="86" type="pkw">
			<route edges="road_0_1_0 road_1_1_0"/>
		</vehicle>
		<vehicle depart="155" id="87" type="pkw">
			<route edges="road_0_1_0 road_1_1_1"/>
		</vehicle>
		<vehicle depart="155" id="88" type="pkw">
			<route edges="road_1_2_3 road_1_1_3"/>
		</vehicle>
		<vehicle depart="156" id="89" type="pkw">
			<route edges="road_2_1_2 road_1_1_2"/>
		</vehicle>
		<vehicle depart="157" id="90" type="pkw">
			<route edges="road_0_1_0 road_1_1_0"/>
		</vehicle>
		<vehicle depart="157" id="91" type="pkw">
			<route edges="road_0_1_0 road_1_1_1"/>
		</vehicle>
		<vehicle depart="158" id="92" type="pkw">
			<route edges="road_1_0_1 road_1_1_1"/>
		</vehicle>
		<vehicle depart="159" id="93" type="pkw">
			<route edges="road_0_1_0 road_1_1_0"/>
		</vehicle>
		<vehicle depart="160" id="94" type="pkw">
			<route edges="road_1_0_1 road_1_1_1"/>
		</vehicle>
		<vehicle depart="163" id="95" type="pkw">
			<route edges="road_0_1_0 road_1_1_0"/>
		</vehicle>
		<vehicle depart="163" id="96" type="pkw">
			<route edges="road_1_0_1 road_1_1_1"/>
		</vehicle>
		<vehicle depart="167" id="97" type="pkw">
			<route edges="road_0_1_0 road_1_1_0"/>
		</vehicle>
		<vehicle depart="167" id="98" type="pkw">
			<route edges="road_0_1_0 road_1_1_1"/>
		</vehicle>
		<vehicle depart="168" id="99" type="pkw">
			<route edges="road_1_0_1 road_1_1_1"/>
		</vehicle>
		<vehicle depart="169" id="100" type="pkw">
			<route edges="road_0_1_0 road_1_1_0"/>
		</vehicle>
		<vehicle depart="169" id="101" type="pkw">
			<route edges="road_0_1_0 road_1_1_0"/>
		</vehicle>
		<vehicle depart="170" id="102" type="pkw">
			<route edges="road_1_0_1 road_1_1_1"/>
		</vehicle>
		<vehicle depart="172" id="103" type="pkw">
			<route edges="road_0_1_0 road_1_1_0"/>
		</vehicle>
		<vehicle depart="173" id="104" type="pkw">
			<route edges="road_0_1_0 road_1_1_0"/>
		</vehicle>
		<vehicle depart="175" id="105" type="pkw">
			<route edges="road_1_0_1 road_1_1_1"/>
		</vehicle>
		<vehicle depart="175" id="106" type="pkw">
			<route edges="road_1_0_1 road_1_1_1"/>
		</vehicle>
		<vehicle depart="175" id="107" type="pkw">
			<route edges="road_1_0_1 road_1_1_2"/>
		</vehicle>
		<vehicle depart="176" id="108" type="pkw">
			<route edges="road_1_2_3 road_1_1_3"/>
		</vehicle>
		<vehicle depart="178" id="109" type="pkw">
			<route edges="road_0_1_0 road_1_1_0"/>
		</vehicle>
		<vehicle depart="178" id="110" type="pkw">
			<route edges="road_0_1_0 road_1_1_1"/>
		</vehicle>
		<vehicle depart="182" id="111" type="pkw">
			<route edges="road_1_0_1 road_1_1_1"/>
		</vehicle>
		<vehicle depart="184" id="112" type="pkw">
			<route edges="road_0_1_0 road_1_1_0"/>
		</vehicle>
		<vehicle depart="189" id="113" type="pkw">
			<route edges="road_1_2_3 road_1_1_3"/>
		</vehicle>
		<vehicle depart="189" id="114" type="pkw">
			<route edges="road_0_1_0 road_1_1_0"/>
		</vehicle>
		<vehicle depart="189" id="115" type="pkw">
			<route edges="road_1_0_1 road_1_1_1"/>
		</vehicle>
		<vehicle depart="193" id="116" type="pkw">
			<route edges="road_1_2_3 road_1_1_3"/>
		</vehicle>
		<vehicle depart="194" id="117" type="pkw">
			<route edges="road_1_0_1 road_1_1_1"/>
		</vehicle>
		<vehicle depart="195" id="118" type="pkw">
			<route edges="road_1_2_3 road_1_1_3"/>
		</vehicle>
		<vehicle depart="195" id="119" type="pkw">
			<route edges="road_1_2_3 road_1_1_0"/>
		</vehicle>
		<vehicle depart="197" id="120" type="pkw">
			<route edges="road_1_0_1 road_1_1_1"/>
		</vehicle>
		<vehicle depart="197" id="121" type="pkw">
			<route edges="road_1_0_1 road_1_1_2"/>
		</vehicle>
		<vehicle depart="198" id="122" type="pkw">
			<route edges="road_1_0_1 road_1_1_1"/>
		</vehicle>
		<vehicle depart="198" id="123" type="pkw">
			<route edges="road_1_2_3 road_1_1_3"/>
		</vehicle>
		<vehicle depart="198" id="124" type="pkw">
			<route edges="road_0_1_0 road_1_1_0"/>
		</vehicle>
		<vehicle depart="199" id="125" type="pkw">
			<route edges="road_0_1_0 road_1_1_0"/>
		</vehicle>
		<vehicle depart="204" id="126" type="pkw">
			<route edges="road_0_1_0 road_1_1_0"/>
		</vehicle>
		<vehicle depart="208" id="127" type="pkw">
			<route edges="road_1_0_1 road_1_1_1"/>
		</vehicle>
		<vehicle depart="208" id="128" type="pkw">
			<route edges="road_1_0_1 road_1_1_2"/>
		</vehicle>
		<vehicle depart="209" id="129" type="pkw">
			<route edges="road_1_0_1 road_1_1_1"/>
		</vehicle>
		<vehicle depart="210" id="130" type="pkw">
			<route edges="road_1_0_1 road_1_1_1"/>
		</vehicle>
		<vehicle depart="213" id="131" type="pkw">
			<route edges="road_1_2_3 road_1_1_3"/>
		</vehicle>
		<vehicle depart="215" id="132" type="pkw">
			<route edges="road_1_0_1 road_1_1_1"/>
		</vehicle>
		<vehicle depart="215" id="133" type="pkw">
			<route edges="road_1_2_3 road_1_1_3"/>
		</vehicle>
		<vehicle depart="215" id="134" type="pkw">
			<route edges="road_1_0_1 road_1_1_1"/>
		</vehicle>
		<vehicle depart="219" id="135" type="pkw">
			<route edges="road_1_0_1 road_1_1_1"/>
		</vehicle>
		<vehicle depart="223" id="136" type="pkw">
			<route edges="road_1_0_1 road_1_1_1"/>
		</vehicle>
		<vehicle depart="236" id="137" type="pkw">
			<route edges="road_0_1_0 road_1_1_0"/>
		</vehicle>
		<vehicle depart="236" id="138" type="pkw">
			<route edges="road_0_1_0 road_1_1_1"/>
		</vehicle>
		<vehicle depart="237" id="139" type="pkw">
			<route edges="road_1_0_1 road_1_1_1"/>
		</vehicle>
		<vehicle depart="237" id="140" type="pkw">
			<route edges="road_1_0_1 road_1_1_2"/>
		</vehicle>
		<vehicle depart="246" id="141" type="pkw">
			<route edges="road_2_1_2 road_1_1_2"/>
		</vehicle>
		<vehicle depart="247" id="142" type="pkw">
			<route edges="road_2_1_2 road_1_1_2"/>
		</vehicle>
		<vehicle depart="249" id="143" type="pkw">
			<route edges="road_0_1_0 road_1_1_0"/>
		</vehicle>
		<vehicle depart="252" id="144" type="pkw">
			<route edges="road_2_1_2 road_1_1_2"/>
		</vehicle>
		<vehicle depart="265" id="145" type="pkw">
			<route edges="road_0_1_0 road_1_1_0"/>
		</vehicle>
		<vehicle depart="267" id="146" type="pkw">
			<route edges="road_2_1_2 road_1_1_2"/>
		</vehicle>
		<vehicle depart="268" id="147" type="pkw">
			<route edges="road_2_1_2 road_1_1_2"/>
		</vehicle>
		<vehicle depart="272" id="148" type="pkw">
			<route edges="road_2_1_2 road_1_1_2"/>
		</vehicle>
		<vehicle depart="278" id="149" type="pkw">
			<route edges="road_2_1_2 road_1_1_2"/>
		</vehicle>
		<vehicle depart="278" id="150" type="pkw">
			<route edges="road_2_1_2 road_1_1_2"/>
		</vehicle>
		<vehicle depart="280" id="151" type="pkw">
			<route edges="road_0_1_0 road_1_1_0"/>
		</vehicle>
		<vehicle depart="286" id="152" type="pkw">
			<route edges="road_2_1_2 road_1_1_2"/>
		</vehicle>
		<vehicle depart="291" id="153" type="pkw">
			<route edges="road_1_0_1 road_1_1_1"/>
		</vehicle>
		<vehicle depart="293" id="154" type="pkw">
			<route edges="road_1_0_1 road_1_1_1"/>
		</vehicle>
		<vehicle depart="295" id="155" type="pkw">
			<route edges="road_1_0_1 road_1_1_1"/>
		</vehicle>
		<vehicle depart="296" id="156" type="pkw">
			<route edges="road_1_0_1 road_1_1_1"/>
		</vehicle>
		<vehicle depart="297" id="157" type="pkw">
			<route edges="road_1_0_1 road_1_1_1"/>
		</vehicle>
		<vehicle depart="297" id="158" type="pkw">
			<route edges="road_1_0_1 road_1_1_2"/>
		</vehicle>
		<vehicle depart="300" id="159" type="pkw">
			<route edges="road_2_1_2 road_1_1_2"/>
		</vehicle>
		<vehicle depart="300" id="160" type="pkw">
			<route edges="road_2_1_2 road_1_1_3"/>
		</vehicle>
		<vehicle depart="311" id="161" type="pkw">
			<route edges="road_0_1_0 road_1_1_0"/>
		</vehicle>
		<vehicle depart="313" id="162" type="pkw">
			<route edges="road_1_0_1 road_1_1_1"/>
		</vehicle>
		<vehicle depart="316" id="163" type="pkw">
			<route edges="road_1_2_3 road_1_1_3"/>
		</vehicle>
		<vehicle depart="319" id="164" type="pkw">
			<route edges="road_1_0_1 road_1_1_1"/>
		</vehicle>
		<vehicle depart="321" id="165" type="pkw">
			<route edges="road_2_1_2 road_1_1_2"/>
		</vehicle>
		<vehicle depart="322" id="166" type="pkw">
			<route edges="road_1_2_3 road_1_1_3"/>
		</vehicle>
		<vehicle depart="323" id="167" type="pkw">
			<route edges="road_1_2_3 road_1_1_3"/>
		</vehicle>
		<vehicle depart="327" id="168" type="pkw">
			<route edges="road_2_1_2 road_1_1_2"/>
		</vehicle>
		<vehicle depart="329" id="169" type="pkw">
			<route edges="road_2_1_2 road_1_1_2"/>
		</vehicle>
		<vehicle depart="329" id="170" type="pkw">
			<route edges="road_2_1_2 road_1_1_3"/>
		</vehicle>
		<vehicle depart="330" id="171" type="pkw">
			<route edges="road_2_1_2 road_1_1_2"/>
		</vehicle>
		<vehicle depart="330" id="172" type="pkw">
			<route edges="road_0_1_0 road_1_1_0"/>
		</vehicle>
		<vehicle depart="330" id="173" type="pkw">
			<route edges="road_0_1_0 road_1_1_1"/>
		</vehicle>
		<vehicle depart="334" id="174" type="pkw">
			<route edges="road_1_0_1 road_1_1_1"/>
		</vehicle>
		<vehicle depart="336" id="175" type="pkw">
			<route edges="road_2_1_2 road_1_1_2"/>
		</vehicle>
		<vehicle depart="336" id="176" type="pkw">
			<route edges="road_1_0_1 road_1_1_1"/>
		</vehicle>
		<vehicle depart="337" id="177" type="pkw">
			<route edges="road_2_1_2 road_1_1_2"/>
		</vehicle>
		<vehicle depart="340" id="178" type="pkw">
			<route edges="road_2_1_2 road_1_1_2"/>
		</vehicle>
		<vehicle depart="340" id="179" type="pkw">
			<route edges="road_0_1_0 road_1_1_0"/>
		</vehicle>
		<vehicle depart="342" id="180" type="pkw">
			<route edges="road_1_0_1 road_1_1_1"/>
		</vehicle>
		<vehicle depart="344" id="181" type="pkw">
			<route edges="road_0_1_0 road_1_1_0"/>
		</vehicle>
		<vehicle depart="344" id="182" type="pkw">
			<route edges="road_1_2_3 road_1_1_3"/>
		</vehicle>
		<vehicle depart="354" id="183" type="pkw">
			<route edges="road_0_1_0 road_1_1_0"/>
		</vehicle>
		<vehicle depart="356" id="184" type="pkw">
			<route edges="road_1_2_3 road_1_1_3"/>
		</vehicle>
		<vehicle depart="356" id="185" type="pkw">
			<route edges="road_1_2_3 road_1_1_0"/>
		</vehicle>
		<vehicle depart="356" id="186" type="pkw">
			<route edges="road_1_2_3 road_1_1_3"/>
		</vehicle>
		<vehicle depart="360" id="187" type="pkw">
			<route edges="road_1_0_1 road_1_1_1"/>
		</vehicle>
		<vehicle depart="360" id="188" type="pkw">
			<route edges="road_1_2_3 road_1_1_3"/>
		</vehicle>
		<vehicle depart="361" id="189" type="pkw">
			<route edges="road_1_2_3 road_1_1_3"/>
		</vehicle>
		<vehicle depart="361" id="190" type="pkw">
			<route edges="road_1_2_3 road_1_1_0"/>
		</vehicle>
		<vehicle depart="361" id="191" type="pkw">
			<route edges="road_0_1_0 road_1_1_0"/>
		</vehicle>
		<vehicle depart="362" id="192" type="pkw">
			<route edges="road_1_2_3 road_1_1_3"/>
		</vehicle>
		<vehicle depart="364" id="193" type="pkw">
			<route edges="road_1_2_3 road_1_1_3"/>
		</vehicle>
		<vehicle depart="364" id="194" type="pkw">
			<route edges="road_0_1_0 road_1_1_0"/>
		</vehicle>
		<vehicle depart="366" id="195" type="pkw">
			<route edges="road_1_2_3 road_1_1_3"/>
		</vehicle>
		<vehicle depart="366" id="196" type="pkw">
			<route edges="road_1_0_1 road_1_1_1"/>
		</vehicle>
		<vehicle depart="366" id="197" type="pkw">
			<route edges="road_1_0_1 road_1_1_2"/>
		</vehicle>
		<vehicle depart="367" id="198" type="pkw">
			<route edges="road_0_1_0 road_1_1_0"/>
		</vehicle>
		<vehicle depart="367" id="199" type="pkw">
			<route edges="road_0_1_0 road_1_1_1"/>
		</vehicle>
		<vehicle depart="369" id="200" type="pkw">
			<route edges="road_1_2_3 road_1_1_3"/>
		</vehicle>
		<vehicle depart="369" id="201" type="pkw">
			<route edges="road_1_2_3 road_1_1_0"/>
		</vehicle>
		<vehicle depart="371" id="202" type="pkw">
			<route edges="road_1_2_3 road_1_1_3"/>
		</vehicle>
		<vehicle depart="371" id="203" type="pkw">
			<route edges="road_1_2_3 road_1_1_0"/>
		</vehicle>
		<vehicle depart="372" id="204" type="pkw">
			<route edges="road_0_1_0 road_1_1_0"/>
		</vehicle>
		<vehicle depart="374" id="205" type="pkw">
			<route edges="road_1_2_3 road_1_1_3"/>
		</vehicle>
		<vehicle depart="376" id="206" type="pkw">
			<route edges="road_1_2_3 road_1_1_3"/>
		</vehicle>
		<vehicle depart="378" id="207" type="pkw">
			<route edges="road_1_2_3 road_1_1_3"/>
		</vehicle>
		<vehicle depart="378" id="208" type="pkw">
			<route edges="road_1_2_3 road_1_1_3"/>
		</vehicle>
		<vehicle depart="379" id="209" type="pkw">
			<route edges="road_0_1_0 road_1_1_0"/>
		</vehicle>
		<vehicle depart="382" id="210" type="pkw">
			<route edges="road_1_0_1 road_1_1_1"/>
		</vehicle>
		<vehicle depart="389" id="211" type="pkw">
			<route edges="road_0_1_0 road_1_1_0"/>
		</vehicle>
		<vehicle depart="389" id="212" type="pkw">
			<route edges="road_1_0_1 road_1_1_1"/>
		</vehicle>
		<vehicle depart="391" id="213" type="pkw">
			<route edges="road_1_0_1 road_1_1_1"/>
		</vehicle>
		<vehicle depart="391" id="214" type="pkw">
			<route edges="road_1_0_1 road_1_1_2"/>
		</vehicle>
		<vehicle depart="392" id="215" type="pkw">
			<route edges="road_1_0_1 road_1_1_1"/>
		</vehicle>
		<vehicle depart="393" id="216" type="pkw">
			<route edges="road_1_0_1 road_1_1_1"/>
		</vehicle>
		<vehicle depart="396" id="217" type="pkw">
			<route edges="road_1_0_1 road_1_1_1"/>
		</vehicle>
		<vehicle depart="398" id="218" type="pkw">
			<route edges="road_1_0_1 road_1_1_1"/>
		</vehicle>
		<vehicle depart="400" id="219" type="pkw">
			<route edges="road_1_0_1 road_1_1_1"/>
		</vehicle>
		<vehicle depart="401" id="220" type="pkw">
			<route edges="road_1_2_3 road_1_1_3"/>
		</vehicle>
		<vehicle depart="401" id="221" type="pkw">
			<route edges="road_1_0_1 road_1_1_1"/>
		</vehicle>
		<vehicle depart="402" id="222" type="pkw">
			<route edges="road_1_2_3 road_1_1_3"/>
		</vehicle>
		<vehicle depart="403" id="223" type="pkw">
			<route edges="road_1_0_1 road_1_1_1"/>
		</vehicle>
		<vehicle depart="404" id="224" type="pkw">
			<route edges="road_1_2_3 road_1_1_3"/>
		</vehicle>
		<vehicle depart="405" id="225" type="pkw">
			<route edges="road_1_2_3 road_1_1_3"/>
		</vehicle>
		<vehicle depart="405" id="226" type="pkw">
			<route edges="road_1_2_3 road_1_1_0"/>
		</vehicle>
		<vehicle depart="405" id="227" type="pkw">
			<route edges="road_1_0_1 road_1_1_1"/>
		</vehicle>
		<vehicle depart="407" id="228" type="pkw">
			<route edges="road_1_2_3 road_1_1_3"/>
		</vehicle>
		<vehicle depart="408" id="229" type="pkw">
			<route edges="road_1_0_1 road_1_1_1"/>
		</vehicle>
		<vehicle depart="412" id="230" type="pkw">
			<route edges="road_1_0_1 road_1_1_1"/>
		</vehicle>
		<vehicle depart="412" id="231" type="pkw">
			<route edges="road_1_0_1 road_1_1_2"/>
		</vehicle>
		<vehicle depart="415" id="232" type="pkw">
			<route edges="road_1_0_1 road_1_1_1"/>
		</vehicle>
		<vehicle depart="416" id="233" type="pkw">
			<route edges="road_0_1_0 road_1_1_0"/>
		</vehicle>
		<vehicle depart="421" id="234" type="pkw">
			<route edges="road_1_2_3 road_1_1_3"/>
		</vehicle>
		<vehicle depart="432" id="235" type="pkw">
			<route edges="road_1_0_1 road_1_1_1"/>
		</vehicle>
		<vehicle depart="445" id="236" type="pkw">
			<route edges="road_2_1_2 road_1_1_2"/>
		</vehicle>
		<vehicle depart="448" id="237" type="pkw">
			<route edges="road_0_1_0 road_1_1_0"/>
		</vehicle>
		<vehicle depart="449" id="238" type="pkw">
			<route edges="road_2_1_2 road_1_1_2"/>
		</vehicle>
		<vehicle depart="450" id="239" type="pkw">
			<route edges="road_0_1_0 road_1_1_0"/>
		</vehicle>
		<vehicle depart="453" id="240" type="pkw">
			<route edges="road_0_1_0 road_1_1_0"/>
		</vehicle>
		<vehicle depart="453" id="241" type="pkw">
			<route edges="road_0_1_0 road_1_1_0"/>
		</vehicle>
		<vehicle depart="455" id="242" type="pkw">
			<route edges="road_0_1_0 road_1_1_0"/>
		</vehicle>
		<vehicle depart="455" id="243" type="pkw">
			<route edges="road_2_1_2 road_1_1_2"/>
		</vehicle>
		<vehicle depart="456" id="244" type="pkw">
			<route edges="road_2_1_2 road_1_1_2"/>
		</vehicle>
		<vehicle depart="457" id="245" type="pkw">
			<route edges="road_0_1_0 road_1_1_0"/>
		</vehicle>
		<vehicle depart="458" id="246" type="pkw">
			<route edges="road_2_1_2 road_1_1_2"/>
		</vehicle>
		<vehicle depart="458" id="247" type="pkw">
			<route edges="road_2_1_2 road_1_1_2"/>
		</vehicle>
		<vehicle depart="459" id="248" type="pkw">
			<route edges="road_0_1_0 road_1_1_0"/>
		</vehicle>
		<vehicle depart="461" id="249" type="pkw">
			<route edges="road_0_1_0 road_1_1_0"/>
		</vehicle>
		<vehicle depart="461" id="250" type="pkw">
			<route edges="road_2_1_2 road_1_1_2"/>
		</vehicle>
		<vehicle depart="461" id="251" type="pkw">
			<route edges="road_2_1_2 road_1_1_3"/>
		</vehicle>
		<vehicle depart="464" id="252" type="pkw">
			<route edges="road_0_1_0 road_1_1_0"/>
		</vehicle>
		<vehicle depart="467" id="253" type="pkw">
			<route edges="road_0_1_0 road_1_1_0"/>
		</vehicle>
		<vehicle depart="469" id="254" type="pkw">
			<route edges="road_0_1_0 road_1_1_0"/>
		</vehicle>
		<vehicle depart="469" id="255" type="pkw">
			<route edges="road_0_1_0 road_1_1_1"/>
		</vehicle>
		<vehicle depart="469" id="256" type="pkw">
			<route edges="road_0_1_0 road_1_1_0"/>
		</vehicle>
		<vehicle depart="469" id="257" type="pkw">
			<route edges="road_0_1_0 road_1_1_1"/>
		</vehicle>
		<vehicle depart="471" id="258" type="pkw">
			<route edges="road_2_1_2 road_1_1_2"/>
		</vehicle>
		<vehicle depart="475" id="259" type="pkw">
			<route edges="road_1_0_1 road_1_1_1"/>
		</vehicle>
		<vehicle depart="476" id="260" type="pkw">
			<route edges="road_2_1_2 road_1_1_2"/>
		</vehicle>
		<vehicle depart="476" id="261" type="pkw">
			<route edges="road_2_1_2 road_1_1_3"/>
		</vehicle>
		<vehicle depart="478" id="262" type="pkw">
			<route edges="road_0_1_0 road_1_1_0"/>
		</vehicle>
		<vehicle depart="478" id="263" type="pkw">
			<route edges="road_0_1_0 road_1_1_1"/>
		</vehicle>
		<vehicle depart="484" id="264" type="pkw">
			<route edges="road_1_0_1 road_1_1_1"/>
		</vehicle>
		<vehicle depart="484" id="265" type="pkw">
			<route edges="road_0_1_0 road_1_1_0"/>
		</vehicle>
		<vehicle depart="486" id="266" type="pkw">
			<route edges="road_0_1_0 road_1_1_0"/>
		</vehicle>
		<vehicle depart="497" id="267" type="pkw">
			<route edges="road_1_0_1 road_1_1_1"/>
		</vehicle>
		<vehicle depart="502" id="268" type="pkw">
			<route edges="road_1_2_3 road_1_1_3"/>
		</vehicle>
		<vehicle depart="502" id="269" type="pkw">
			<route edges="road_2_1_2 road_1_1_2"/>
		</vehicle>
		<vehicle depart="503" id="270" type="pkw">
			<route edges="road_1_2_3 road_1_1_3"/>
		</vehicle>
		<vehicle depart="503" id="271" type="pkw">
			<route edges="road_1_2_3 road_1_1_0"/>
		</vehicle>
		<vehicle depart="504" id="272" type="pkw">
			<route edges="road_1_0_1 road_1_1_1"/>
		</vehicle>
		<vehicle depart="505" id="273" type="pkw">
			<route edges="road_1_2_3 road_1_1_3"/>
		</vehicle>
		<vehicle depart="509" id="274" type="pkw">
			<route edges="road_1_0_1 road_1_1_1"/>
		</vehicle>
		<vehicle depart="509" id="275" type="pkw">
			<route edges="road_1_2_3 road_1_1_3"/>
		</vehicle>
		<vehicle depart="510" id="276" type="pkw">
			<route edges="road_0_1_0 road_1_1_0"/>
		</vehicle>
		<vehicle depart="511" id="277" type="pkw">
			<route edges="road_1_2_3 road_1_1_3"/>
		</vehicle>
		<vehicle depart="511" id="278" type="pkw">
			<route edges="road_1_2_3 road_1_1_0"/>
		</vehicle>
		<vehicle depart="511" id="279" type="pkw">
			<route edges="road_1_0_1 road_1_1_1"/>
		</vehicle>
		<vehicle depart="515" id="280" type="pkw">
			<route edges="road_1_2_3 road_1_1_3"/>
		</vehicle>
		<vehicle depart="516" id="281" type="pkw">
			<route edges="road_1_2_3 road_1_1_3"/>
		</vehicle>
		<vehicle depart="517" id="282" type="pkw">
			<route edges="road_1_0_1 road_1_1_1"/>
		</vehicle>
		<vehicle depart="517" id="283" type="pkw">
			<route edges="road_2_1_2 road_1_1_2"/>
		</vehicle>
		<vehicle depart="517" id="284" type="pkw">
			<route edges="road_1_2_3 road_1_1_3"/>
		</vehicle>
		<vehicle depart="517" id="285" type="pkw">
			<route edges="road_1_2_3 road_1_1_0"/>
		</vehicle>
		<vehicle depart="520" id="286" type="pkw">
			<route edges="road_1_0_1 road_1_1_1"/>
		</vehicle>
		<vehicle depart="520" id="287" type="pkw">
			<route edges="road_1_0_1 road_1_1_2"/>
		</vehicle>
		<vehicle depart="523" id="288" type="pkw">
			<route edges="road_0_1_0 road_1_1_0"/>
		</vehicle>
		<vehicle depart="524" id="289" type="pkw">
			<route edges="road_2_1_2 road_1_1_2"/>
		</vehicle>
		<vehicle depart="529" id="290" type="pkw">
			<route edges="road_2_1_2 road_1_1_2"/>
		</vehicle>
		<vehicle depart="529" id="291" type="pkw">
			<route edges="road_0_1_0 road_1_1_0"/>
		</vehicle>
		<vehicle depart="535" id="292" type="pkw">
			<route edges="road_1_2_3 road_1_1_3"/>
		</vehicle>
		<vehicle depart="535" id="293" type="pkw">
			<route edges="road_1_0_1 road_1_1_1"/>
		</vehicle>
		<vehicle depart="535" id="294" type="pkw">
			<route edges="road_1_0_1 road_1_1_2"/>
		</vehicle>
		<vehicle depart="535" id="295" type="pkw">
			<route edges="road_0_1_0 road_1_1_0"/>
		</vehicle>
		<vehicle depart="541" id="296" type="pkw">
			<route edges="road_1_2_3 road_1_1_3"/>
		</vehicle>
		<vehicle depart="543" id="297" type="pkw">
			<route edges="road_0_1_0 road_1_1_0"/>
		</vehicle>
		<vehicle depart="545" id="298" type="pkw">