<?xml version="1.0" encoding="UTF-8"?>

<!-- generated on 2024-12-09 10:47:52 by Eclipse SUMO netedit Version 1.21.0
<neteditConfiguration xmlns:xsi="http://www.w3.org/2001/XMLSchema-instance" xsi:noNamespaceSchemaLocation="http://sumo.dlr.de/xsd/neteditConfiguration.xsd">

    <input>
        <sumocfg-file value="/home/local/ASURITE/jturnau/UGAT_current/data/raw_data/hangzhou_1x3/modified_from_4x4/sumo1x3.sumocfg"/>
        <additional-files value="/home/local/ASURITE/jturnau/UGAT_current/data/raw_data/hangzhou_1x3/modified_from_4x4/sumo1x3.add.xml"/>
        <route-files value="/home/local/ASURITE/jturnau/UGAT_current/data/raw_data/hangzhou_1x3/modified_from_4x4/sumo1x3.rou.xml"/>
        <sumo-net-file value="/home/local/ASURITE/jturnau/UGAT_current/data/raw_data/hangzhou_1x3/modified_from_4x4/hangzhou_1x3_reduced_from_4x4.net.xml"/>
    </input>

    <output>
        <output-file value="/home/local/ASURITE/jturnau/UGAT_current/data/raw_data/hangzhou_1x3/modified_from_4x4/hangzhou_1x3_reduced_from_4x4.net.xml"/>
    </output>

    <processing>
        <geometry.min-radius.fix.railways value="false"/>
        <geometry.max-grade.fix value="false"/>
        <offset.disable-normalization value="true"/>
        <lefthand value="0"/>
    </processing>

    <junctions>
        <no-turnarounds value="true"/>
        <junctions.corner-detail value="5"/>
        <junctions.limit-turn-speed value="5.50"/>
        <rectangular-lane-cut value="0"/>
    </junctions>

    <pedestrian>
        <walkingareas value="0"/>
    </pedestrian>

</neteditConfiguration>
-->

<net version="1.20" junctionCornerDetail="5" limitTurnSpeed="5.50" xmlns:xsi="http://www.w3.org/2001/XMLSchema-instance" xsi:noNamespaceSchemaLocation="http://sumo.dlr.de/xsd/net_file.xsd">

    <location netOffset="800.00,600.00" convBoundary="0.00,0.00,3200.00,1200.00" origBoundary="-800.00,-600.00,3200.00,2400.00" projParameter="!"/>

    <edge id=":intersection_0_1_0" function="internal">
        <lane id=":intersection_0_1_0_0" index="0" speed="3.65" length="4.67" shape="0.00,601.60 -1.20,600.80 -1.60,600.00 -1.20,599.20 0.00,598.40"/>
    </edge>
    <edge id=":intersection_1_0_0" function="internal">
        <lane id=":intersection_1_0_0_0" index="0" speed="3.65" length="4.67" shape="798.40,0.00 799.20,-1.20 800.00,-1.60 800.80,-1.20 801.60,0.00"/>
    </edge>
    <edge id=":intersection_1_1_0" function="internal">
        <lane id=":intersection_1_1_0_0" index="0" speed="6.51" length="9.03" shape="792.00,613.60 791.65,611.15 790.60,609.40 788.85,608.35 786.40,608.00"/>
        <lane id=":intersection_1_1_0_1" index="1" speed="7.33" length="11.73" shape="792.00,613.60 791.65,609.75 790.60,607.00 788.85,605.35 786.40,604.80"/>
        <lane id=":intersection_1_1_0_2" index="2" speed="8.10" length="14.57" shape="792.00,613.60 791.65,608.35 790.60,604.60 788.85,602.35 786.40,601.60"/>
    </edge>
    <edge id=":intersection_1_1_3" function="internal">
        <lane id=":intersection_1_1_3_0" index="0" speed="11.11" length="27.37" shape="795.20,613.60 794.70,605.50 793.60,600.00 792.50,594.50 792.00,586.40"/>
        <lane id=":intersection_1_1_3_1" index="1" speed="11.11" length="27.37" shape="795.20,613.60 795.20,586.40"/>
        <lane id=":intersection_1_1_3_2" index="2" speed="11.11" length="27.37" shape="795.20,613.60 795.70,605.50 796.80,600.00 797.90,594.50 798.40,586.40"/>
    </edge>
    <edge id=":intersection_1_1_6" function="internal">
        <lane id=":intersection_1_1_6_0" index="0" speed="11.11" length="29.85" shape="798.40,613.60 799.35,604.15 802.20,597.40 806.95,593.35 813.60,592.00"/>
        <lane id=":intersection_1_1_6_1" index="1" speed="10.88" length="27.14" shape="798.40,613.60 799.35,605.55 802.20,599.80 806.95,596.35 813.60,595.20"/>
        <lane id=":intersection_1_1_6_2" index="2" speed="10.36" length="24.51" shape="798.40,613.60 799.35,606.95 802.20,602.20 806.95,599.35 813.60,598.40"/>
    </edge>
    <edge id=":intersection_1_1_9" function="internal">
        <lane id=":intersection_1_1_9_0" index="0" speed="6.51" length="9.03" shape="813.60,608.00 811.15,608.35 809.40,609.40 808.35,611.15 808.00,613.60"/>
        <lane id=":intersection_1_1_9_1" index="1" speed="7.33" length="11.73" shape="813.60,608.00 809.75,608.35 807.00,609.40 805.35,611.15 804.80,613.60"/>
        <lane id=":intersection_1_1_9_2" index="2" speed="8.10" length="14.57" shape="813.60,608.00 808.35,608.35 804.60,609.40 802.35,611.15 801.60,613.60"/>
    </edge>
    <edge id=":intersection_1_1_12" function="internal">
        <lane id=":intersection_1_1_12_0" index="0" speed="11.11" length="27.37" shape="813.60,604.80 805.50,605.30 800.00,606.40 794.50,607.50 786.40,608.00"/>
        <lane id=":intersection_1_1_12_1" index="1" speed="11.11" length="27.37" shape="813.60,604.80 786.40,604.80"/>
        <lane id=":intersection_1_1_12_2" index="2" speed="11.11" length="27.37" shape="813.60,604.80 805.50,604.30 800.00,603.20 794.50,602.10 786.40,601.60"/>
    </edge>
    <edge id=":intersection_1_1_15" function="internal">
        <lane id=":intersection_1_1_15_0" index="0" speed="11.11" length="29.85" shape="813.60,601.60 804.15,600.65 797.40,597.80 793.35,593.05 792.00,586.40"/>
        <lane id=":intersection_1_1_15_1" index="1" speed="10.88" length="27.14" shape="813.60,601.60 805.55,600.65 799.80,597.80 796.35,593.05 795.20,586.40"/>
        <lane id=":intersection_1_1_15_2" index="2" speed="10.36" length="24.51" shape="813.60,601.60 806.95,600.65 802.20,597.80 799.35,593.05 798.40,586.40"/>
    </edge>
    <edge id=":intersection_1_1_18" function="internal">
        <lane id=":intersection_1_1_18_0" index="0" speed="6.51" length="9.03" shape="808.00,586.40 808.35,588.85 809.40,590.60 811.15,591.65 813.60,592.00"/>
        <lane id=":intersection_1_1_18_1" index="1" speed="7.33" length="11.73" shape="808.00,586.40 808.35,590.25 809.40,593.00 811.15,594.65 813.60,595.20"/>
        <lane id=":intersection_1_1_18_2" index="2" speed="8.10" length="14.57" shape="808.00,586.40 808.35,591.65 809.40,595.40 811.15,597.65 813.60,598.40"/>
    </edge>
    <edge id=":intersection_1_1_21" function="internal">
        <lane id=":intersection_1_1_21_0" index="0" speed="11.11" length="27.37" shape="804.80,586.40 805.30,594.50 806.40,600.00 807.50,605.50 808.00,613.60"/>
        <lane id=":intersection_1_1_21_1" index="1" speed="11.11" length="27.37" shape="804.80,586.40 804.80,613.60"/>
        <lane id=":intersection_1_1_21_2" index="2" speed="11.11" length="27.37" shape="804.80,586.40 804.30,594.50 803.20,600.00 802.10,605.50 801.60,613.60"/>
    </edge>
    <edge id=":intersection_1_1_24" function="internal">
        <lane id=":intersection_1_1_24_0" index="0" speed="11.11" length="29.85" shape="801.60,586.40 800.65,595.85 797.80,602.60 793.05,606.65 786.40,608.00"/>
        <lane id=":intersection_1_1_24_1" index="1" speed="10.88" length="27.14" shape="801.60,586.40 800.65,594.45 797.80,600.20 793.05,603.65 786.40,604.80"/>
        <lane id=":intersection_1_1_24_2" index="2" speed="10.36" length="24.51" shape="801.60,586.40 800.65,593.05 797.80,597.80 793.05,600.65 786.40,601.60"/>
    </edge>
    <edge id=":intersection_1_1_27" function="internal">
        <lane id=":intersection_1_1_27_0" index="0" speed="6.51" length="9.03" shape="786.40,592.00 788.85,591.65 790.60,590.60 791.65,588.85 792.00,586.40"/>
        <lane id=":intersection_1_1_27_1" index="1" speed="7.33" length="11.73" shape="786.40,592.00 790.25,591.65 793.00,590.60 794.65,588.85 795.20,586.40"/>
        <lane id=":intersection_1_1_27_2" index="2" speed="8.10" length="14.57" shape="786.40,592.00 791.65,591.65 795.40,590.60 797.65,588.85 798.40,586.40"/>
    </edge>
    <edge id=":intersection_1_1_30" function="internal">
        <lane id=":intersection_1_1_30_0" index="0" speed="11.11" length="27.37" shape="786.40,595.20 794.50,594.70 800.00,593.60 805.50,592.50 813.60,592.00"/>
        <lane id=":intersection_1_1_30_1" index="1" speed="11.11" length="27.37" shape="786.40,595.20 813.60,595.20"/>
        <lane id=":intersection_1_1_30_2" index="2" speed="11.11" length="27.37" shape="786.40,595.20 794.50,595.70 800.00,596.80 805.50,597.90 813.60,598.40"/>
    </edge>
    <edge id=":intersection_1_1_33" function="internal">
        <lane id=":intersection_1_1_33_0" index="0" speed="11.11" length="29.85" shape="786.40,598.40 795.85,599.35 802.60,602.20 806.65,606.95 808.00,613.60"/>
        <lane id=":intersection_1_1_33_1" index="1" speed="10.88" length="27.14" shape="786.40,598.40 794.45,599.35 800.20,602.20 803.65,606.95 804.80,613.60"/>
        <lane id=":intersection_1_1_33_2" index="2" speed="10.36" length="24.51" shape="786.40,598.40 793.05,599.35 797.80,602.20 800.65,606.95 801.60,613.60"/>
    </edge>
    <edge id=":intersection_1_2_0" function="internal">
        <lane id=":intersection_1_2_0_0" index="0" speed="3.65" length="4.67" shape="801.60,1200.00 800.80,1201.20 800.00,1201.60 799.20,1201.20 798.40,1200.00"/>
    </edge>
    <edge id=":intersection_2_0_0" function="internal">
        <lane id=":intersection_2_0_0_0" index="0" speed="3.65" length="4.67" shape="1598.40,0.00 1599.20,-1.20 1600.00,-1.60 1600.80,-1.20 1601.60,0.00"/>
    </edge>
    <edge id=":intersection_2_1_0" function="internal">
        <lane id=":intersection_2_1_0_0" index="0" speed="6.51" length="9.03" shape="1592.00,613.60 1591.65,611.15 1590.60,609.40 1588.85,608.35 1586.40,608.00"/>
        <lane id=":intersection_2_1_0_1" index="1" speed="7.33" length="11.73" shape="1592.00,613.60 1591.65,609.75 1590.60,607.00 1588.85,605.35 1586.40,604.80"/>
        <lane id=":intersection_2_1_0_2" index="2" speed="8.10" length="14.57" shape="1592.00,613.60 1591.65,608.35 1590.60,604.60 1588.85,602.35 1586.40,601.60"/>
    </edge>
    <edge id=":intersection_2_1_3" function="internal">
        <lane id=":intersection_2_1_3_0" index="0" speed="11.11" length="27.37" shape="1595.20,613.60 1594.70,605.50 1593.60,600.00 1592.50,594.50 1592.00,586.40"/>
        <lane id=":intersection_2_1_3_1" index="1" speed="11.11" length="27.37" shape="1595.20,613.60 1595.20,586.40"/>
        <lane id=":intersection_2_1_3_2" index="2" speed="11.11" length="27.37" shape="1595.20,613.60 1595.70,605.50 1596.80,600.00 1597.90,594.50 1598.40,586.40"/>
    </edge>
    <edge id=":intersection_2_1_6" function="internal">
        <lane id=":intersection_2_1_6_0" index="0" speed="11.11" length="29.85" shape="1598.40,613.60 1599.35,604.15 1602.20,597.40 1606.95,593.35 1613.60,592.00"/>
        <lane id=":intersection_2_1_6_1" index="1" speed="10.88" length="27.14" shape="1598.40,613.60 1599.35,605.55 1602.20,599.80 1606.95,596.35 1613.60,595.20"/>
        <lane id=":intersection_2_1_6_2" index="2" speed="10.36" length="24.51" shape="1598.40,613.60 1599.35,606.95 1602.20,602.20 1606.95,599.35 1613.60,598.40"/>
    </edge>
    <edge id=":intersection_2_1_9" function="internal">
        <lane id=":intersection_2_1_9_0" index="0" speed="6.51" length="9.03" shape="1613.60,608.00 1611.15,608.35 1609.40,609.40 1608.35,611.15 1608.00,613.60"/>
        <lane id=":intersection_2_1_9_1" index="1" speed="7.33" length="11.73" shape="1613.60,608.00 1609.75,608.35 1607.00,609.40 1605.35,611.15 1604.80,613.60"/>
        <lane id=":intersection_2_1_9_2" index="2" speed="8.10" length="14.57" shape="1613.60,608.00 1608.35,608.35 1604.60,609.40 1602.35,611.15 1601.60,613.60"/>
    </edge>
    <edge id=":intersection_2_1_12" function="internal">
        <lane id=":intersection_2_1_12_0" index="0" speed="11.11" length="27.37" shape="1613.60,604.80 1605.50,605.30 1600.00,606.40 1594.50,607.50 1586.40,608.00"/>
        <lane id=":intersection_2_1_12_1" index="1" speed="11.11" length="27.37" shape="1613.60,604.80 1586.40,604.80"/>
        <lane id=":intersection_2_1_12_2" index="2" speed="11.11" length="27.37" shape="1613.60,604.80 1605.50,604.30 1600.00,603.20 1594.50,602.10 1586.40,601.60"/>
    </edge>
    <edge id=":intersection_2_1_15" function="internal">
        <lane id=":intersection_2_1_15_0" index="0" speed="11.11" length="29.85" shape="1613.60,601.60 1604.15,600.65 1597.40,597.80 1593.35,593.05 1592.00,586.40"/>
        <lane id=":intersection_2_1_15_1" index="1" speed="10.88" length="27.14" shape="1613.60,601.60 1605.55,600.65 1599.80,597.80 1596.35,593.05 1595.20,586.40"/>
        <lane id=":intersection_2_1_15_2" index="2" speed="10.36" length="24.51" shape="1613.60,601.60 1606.95,600.65 1602.20,597.80 1599.35,593.05 1598.40,586.40"/>
    </edge>
    <edge id=":intersection_2_1_18" function="internal">
        <lane id=":intersection_2_1_18_0" index="0" speed="6.51" length="9.03" shape="1608.00,586.40 1608.35,588.85 1609.40,590.60 1611.15,591.65 1613.60,592.00"/>
        <lane id=":intersection_2_1_18_1" index="1" speed="7.33" length="11.73" shape="1608.00,586.40 1608.35,590.25 1609.40,593.00 1611.15,594.65 1613.60,595.20"/>
        <lane id=":intersection_2_1_18_2" index="2" speed="8.10" length="14.57" shape="1608.00,586.40 1608.35,591.65 1609.40,595.40 1611.15,597.65 1613.60,598.40"/>
    </edge>
    <edge id=":intersection_2_1_21" function="internal">
        <lane id=":intersection_2_1_21_0" index="0" speed="11.11" length="27.37" shape="1604.80,586.40 1605.30,594.50 1606.40,600.00 1607.50,605.50 1608.00,613.60"/>
        <lane id=":intersection_2_1_21_1" index="1" speed="11.11" length="27.37" shape="1604.80,586.40 1604.80,613.60"/>
        <lane id=":intersection_2_1_21_2" index="2" speed="11.11" length="27.37" shape="1604.80,586.40 1604.30,594.50 1603.20,600.00 1602.10,605.50 1601.60,613.60"/>
    </edge>
    <edge id=":intersection_2_1_24" function="internal">
        <lane id=":intersection_2_1_24_0" index="0" speed="11.11" length="29.85" shape="1601.60,586.40 1600.65,595.85 1597.80,602.60 1593.05,606.65 1586.40,608.00"/>
        <lane id=":intersection_2_1_24_1" index="1" speed="10.88" length="27.14" shape="1601.60,586.40 1600.65,594.45 1597.80,600.20 1593.05,603.65 1586.40,604.80"/>
        <lane id=":intersection_2_1_24_2" index="2" speed="10.36" length="24.51" shape="1601.60,586.40 1600.65,593.05 1597.80,597.80 1593.05,600.65 1586.40,601.60"/>
    </edge>
    <edge id=":intersection_2_1_27" function="internal">
        <lane id=":intersection_2_1_27_0" index="0" speed="6.51" length="9.03" shape="1586.40,592.00 1588.85,591.65 1590.60,590.60 1591.65,588.85 1592.00,586.40"/>
        <lane id=":intersection_2_1_27_1" index="1" speed="7.33" length="11.73" shape="1586.40,592.00 1590.25,591.65 1593.00,590.60 1594.65,588.85 1595.20,586.40"/>
        <lane id=":intersection_2_1_27_2" index="2" speed="8.10" length="14.57" shape="1586.40,592.00 1591.65,591.65 1595.40,590.60 1597.65,588.85 1598.40,586.40"/>
    </edge>
    <edge id=":intersection_2_1_30" function="internal">
        <lane id=":intersection_2_1_30_0" index="0" speed="11.11" length="27.37" shape="1586.40,595.20 1594.50,594.70 1600.00,593.60 1605.50,592.50 1613.60,592.00"/>
        <lane id=":intersection_2_1_30_1" index="1" speed="11.11" length="27.37" shape="1586.40,595.20 1613.60,595.20"/>
        <lane id=":intersection_2_1_30_2" index="2" speed="11.11" length="27.37" shape="1586.40,595.20 1594.50,595.70 1600.00,596.80 1605.50,597.90 1613.60,598.40"/>
    </edge>
    <edge id=":intersection_2_1_33" function="internal">
        <lane id=":intersection_2_1_33_0" index="0" speed="11.11" length="29.85" shape="1586.40,598.40 1595.85,599.35 1602.60,602.20 1606.65,606.95 1608.00,613.60"/>
        <lane id=":intersection_2_1_33_1" index="1" speed="10.88" length="27.14" shape="1586.40,598.40 1594.45,599.35 1600.20,602.20 1603.65,606.95 1604.80,613.60"/>
        <lane id=":intersection_2_1_33_2" index="2" speed="10.36" length="24.51" shape="1586.40,598.40 1593.05,599.35 1597.80,602.20 1600.65,606.95 1601.60,613.60"/>
    </edge>
    <edge id=":intersection_2_2_0" function="internal">
        <lane id=":intersection_2_2_0_0" index="0" speed="3.65" length="4.67" shape="1601.60,1200.00 1600.80,1201.20 1600.00,1201.60 1599.20,1201.20 1598.40,1200.00"/>
    </edge>
    <edge id=":intersection_3_0_0" function="internal">
        <lane id=":intersection_3_0_0_0" index="0" speed="3.65" length="4.67" shape="2398.40,0.00 2399.20,-1.20 2400.00,-1.60 2400.80,-1.20 2401.60,0.00"/>
    </edge>
    <edge id=":intersection_3_1_0" function="internal">
        <lane id=":intersection_3_1_0_0" index="0" speed="6.51" length="9.03" shape="2392.00,613.60 2391.65,611.15 2390.60,609.40 2388.85,608.35 2386.40,608.00"/>
        <lane id=":intersection_3_1_0_1" index="1" speed="7.33" length="11.73" shape="2392.00,613.60 2391.65,609.75 2390.60,607.00 2388.85,605.35 2386.40,604.80"/>
        <lane id=":intersection_3_1_0_2" index="2" speed="8.10" length="14.57" shape="2392.00,613.60 2391.65,608.35 2390.60,604.60 2388.85,602.35 2386.40,601.60"/>
    </edge>
    <edge id=":intersection_3_1_3" function="internal">
        <lane id=":intersection_3_1_3_0" index="0" speed="11.11" length="27.37" shape="2395.20,613.60 2394.70,605.50 2393.60,600.00 2392.50,594.50 2392.00,586.40"/>
        <lane id=":intersection_3_1_3_1" index="1" speed="11.11" length="27.37" shape="2395.20,613.60 2395.20,586.40"/>
        <lane id=":intersection_3_1_3_2" index="2" speed="11.11" length="27.37" shape="2395.20,613.60 2395.70,605.50 2396.80,600.00 2397.90,594.50 2398.40,586.40"/>
    </edge>
    <edge id=":intersection_3_1_6" function="internal">
        <lane id=":intersection_3_1_6_0" index="0" speed="11.11" length="29.85" shape="2398.40,613.60 2399.35,604.15 2402.20,597.40 2406.95,593.35 2413.60,592.00"/>
        <lane id=":intersection_3_1_6_1" index="1" speed="10.88" length="27.14" shape="2398.40,613.60 2399.35,605.55 2402.20,599.80 2406.95,596.35 2413.60,595.20"/>
        <lane id=":intersection_3_1_6_2" index="2" speed="10.36" length="24.51" shape="2398.40,613.60 2399.35,606.95 2402.20,602.20 2406.95,599.35 2413.60,598.40"/>
    </edge>
    <edge id=":intersection_3_1_9" function="internal">
        <lane id=":intersection_3_1_9_0" index="0" speed="6.51" length="9.03" shape="2413.60,608.00 2411.15,608.35 2409.40,609.40 2408.35,611.15 2408.00,613.60"/>
        <lane id=":intersection_3_1_9_1" index="1" speed="7.33" length="11.73" shape="2413.60,608.00 2409.75,608.35 2407.00,609.40 2405.35,611.15 2404.80,613.60"/>
        <lane id=":intersection_3_1_9_2" index="2" speed="8.10" length="14.57" shape="2413.60,608.00 2408.35,608.35 2404.60,609.40 2402.35,611.15 2401.60,613.60"/>
    </edge>
    <edge id=":intersection_3_1_12" function="internal">
        <lane id=":intersection_3_1_12_0" index="0" speed="11.11" length="27.37" shape="2413.60,604.80 2405.50,605.30 2400.00,606.40 2394.50,607.50 2386.40,608.00"/>
        <lane id=":intersection_3_1_12_1" index="1" speed="11.11" length="27.37" shape="2413.60,604.80 2386.40,604.80"/>
        <lane id=":intersection_3_1_12_2" index="2" speed="11.11" length="27.37" shape="2413.60,604.80 2405.50,604.30 2400.00,603.20 2394.50,602.10 2386.40,601.60"/>
    </edge>
    <edge id=":intersection_3_1_15" function="internal">
        <lane id=":intersection_3_1_15_0" index="0" speed="11.11" length="29.85" shape="2413.60,601.60 2404.15,600.65 2397.40,597.80 2393.35,593.05 2392.00,586.40"/>
        <lane id=":intersection_3_1_15_1" index="1" speed="10.88" length="27.14" shape="2413.60,601.60 2405.55,600.65 2399.80,597.80 2396.35,593.05 2395.20,586.40"/>
        <lane id=":intersection_3_1_15_2" index="2" speed="10.36" length="24.51" shape="2413.60,601.60 2406.95,600.65 2402.20,597.80 2399.35,593.05 2398.40,586.40"/>
    </edge>
    <edge id=":intersection_3_1_18" function="internal">
        <lane id=":intersection_3_1_18_0" index="0" speed="6.51" length="9.03" shape="2408.00,586.40 2408.35,588.85 2409.40,590.60 2411.15,591.65 2413.60,592.00"/>
        <lane id=":intersection_3_1_18_1" index="1" speed="7.33" length="11.73" shape="2408.00,586.40 2408.35,590.25 2409.40,593.00 2411.15,594.65 2413.60,595.20"/>
        <lane id=":intersection_3_1_18_2" index="2" speed="8.10" length="14.57" shape="2408.00,586.40 2408.35,591.65 2409.40,595.40 2411.15,597.65 2413.60,598.40"/>
    </edge>
    <edge id=":intersection_3_1_21" function="internal">
        <lane id=":intersection_3_1_21_0" index="0" speed="11.11" length="27.37" shape="2404.80,586.40 2405.30,594.50 2406.40,600.00 2407.50,605.50 2408.00,613.60"/>
        <lane id=":intersection_3_1_21_1" index="1" speed="11.11" length="27.37" shape="2404.80,586.40 2404.80,613.60"/>
        <lane id=":intersection_3_1_21_2" index="2" speed="11.11" length="27.37" shape="2404.80,586.40 2404.30,594.50 2403.20,600.00 2402.10,605.50 2401.60,613.60"/>
    </edge>
    <edge id=":intersection_3_1_24" function="internal">
        <lane id=":intersection_3_1_24_0" index="0" speed="11.11" length="29.85" shape="2401.60,586.40 2400.65,595.85 2397.80,602.60 2393.05,606.65 2386.40,608.00"/>
        <lane id=":intersection_3_1_24_1" index="1" speed="10.88" length="27.14" shape="2401.60,586.40 2400.65,594.45 2397.80,600.20 2393.05,603.65 2386.40,604.80"/>
        <lane id=":intersection_3_1_24_2" index="2" speed="10.36" length="24.51" shape="2401.60,586.40 2400.65,593.05 2397.80,597.80 2393.05,600.65 2386.40,601.60"/>
    </edge>
    <edge id=":intersection_3_1_27" function="internal">
        <lane id=":intersection_3_1_27_0" index="0" speed="6.51" length="9.03" shape="2386.40,592.00 2388.85,591.65 2390.60,590.60 2391.65,588.85 2392.00,586.40"/>
        <lane id=":intersection_3_1_27_1" index="1" speed="7.33" length="11.73" shape="2386.40,592.00 2390.25,591.65 2393.00,590.60 2394.65,588.85 2395.20,586.40"/>
        <lane id=":intersection_3_1_27_2" index="2" speed="8.10" length="14.57" shape="2386.40,592.00 2391.65,591.65 2395.40,590.60 2397.65,588.85 2398.40,586.40"/>
    </edge>
    <edge id=":intersection_3_1_30" function="internal">
        <lane id=":intersection_3_1_30_0" index="0" speed="11.11" length="27.37" shape="2386.40,595.20 2394.50,594.70 2400.00,593.60 2405.50,592.50 2413.60,592.00"/>
        <lane id=":intersection_3_1_30_1" index="1" speed="11.11" length="27.37" shape="2386.40,595.20 2413.60,595.20"/>
        <lane id=":intersection_3_1_30_2" index="2" speed="11.11" length="27.37" shape="2386.40,595.20 2394.50,595.70 2400.00,596.80 2405.50,597.90 2413.60,598.40"/>
    </edge>
    <edge id=":intersection_3_1_33" function="internal">
        <lane id=":intersection_3_1_33_0" index="0" speed="11.11" length="29.85" shape="2386.40,598.40 2395.85,599.35 2402.60,602.20 2406.65,606.95 2408.00,613.60"/>
        <lane id=":intersection_3_1_33_1" index="1" speed="10.88" length="27.14" shape="2386.40,598.40 2394.45,599.35 2400.20,602.20 2403.65,606.95 2404.80,613.60"/>
        <lane id=":intersection_3_1_33_2" index="2" speed="10.36" length="24.51" shape="2386.40,598.40 2393.05,599.35 2397.80,602.20 2400.65,606.95 2401.60,613.60"/>
    </edge>
    <edge id=":intersection_3_2_0" function="internal">
        <lane id=":intersection_3_2_0_0" index="0" speed="3.65" length="4.67" shape="2401.60,1200.00 2400.80,1201.20 2400.00,1201.60 2399.20,1201.20 2398.40,1200.00"/>
    </edge>
    <edge id=":intersection_4_1_0" function="internal">
        <lane id=":intersection_4_1_0_0" index="0" speed="3.65" length="4.67" shape="3200.00,598.40 3201.20,599.20 3201.60,600.00 3201.20,600.80 3200.00,601.60"/>
    </edge>

    <edge id="road_0_1_0" from="intersection_0_1" to="intersection_1_1" priority="-1">
        <lane id="road_0_1_0_0" index="0" speed="11.11" length="786.40" shape="0.00,592.00 786.40,592.00"/>
        <lane id="road_0_1_0_1" index="1" speed="11.11" length="786.40" shape="0.00,595.20 786.40,595.20"/>
        <lane id="road_0_1_0_2" index="2" speed="11.11" length="786.40" shape="0.00,598.40 786.40,598.40"/>
    </edge>
    <edge id="road_1_0_1" from="intersection_1_0" to="intersection_1_1" priority="-1">
        <lane id="road_1_0_1_0" index="0" speed="11.11" length="586.40" shape="808.00,0.00 808.00,586.40"/>
        <lane id="road_1_0_1_1" index="1" speed="11.11" length="586.40" shape="804.80,0.00 804.80,586.40"/>
        <lane id="road_1_0_1_2" index="2" speed="11.11" length="586.40" shape="801.60,0.00 801.60,586.40"/>
    </edge>
    <edge id="road_1_1_0" from="intersection_1_1" to="intersection_2_1" priority="-1">
        <lane id="road_1_1_0_0" index="0" speed="11.11" length="772.80" shape="813.60,592.00 1586.40,592.00"/>
        <lane id="road_1_1_0_1" index="1" speed="11.11" length="772.80" shape="813.60,595.20 1586.40,595.20"/>
        <lane id="road_1_1_0_2" index="2" speed="11.11" length="772.80" shape="813.60,598.40 1586.40,598.40"/>
    </edge>
    <edge id="road_1_1_1" from="intersection_1_1" to="intersection_1_2" priority="-1">
        <lane id="road_1_1_1_0" index="0" speed="11.11" length="586.40" shape="808.00,613.60 808.00,1200.00"/>
        <lane id="road_1_1_1_1" index="1" speed="11.11" length="586.40" shape="804.80,613.60 804.80,1200.00"/>
        <lane id="road_1_1_1_2" index="2" speed="11.11" length="586.40" shape="801.60,613.60 801.60,1200.00"/>
    </edge>
    <edge id="road_1_1_2" from="intersection_1_1" to="intersection_0_1" priority="-1">
        <lane id="road_1_1_2_0" index="0" speed="11.11" length="786.40" shape="786.40,608.00 0.00,608.00"/>
        <lane id="road_1_1_2_1" index="1" speed="11.11" length="786.40" shape="786.40,604.80 0.00,604.80"/>
        <lane id="road_1_1_2_2" index="2" speed="11.11" length="786.40" shape="786.40,601.60 0.00,601.60"/>
    </edge>
    <edge id="road_1_1_3" from="intersection_1_1" to="intersection_1_0" priority="-1">
        <lane id="road_1_1_3_0" index="0" speed="11.11" length="586.40" shape="792.00,586.40 792.00,0.00"/>
        <lane id="road_1_1_3_1" index="1" speed="11.11" length="586.40" shape="795.20,586.40 795.20,0.00"/>
        <lane id="road_1_1_3_2" index="2" speed="11.11" length="586.40" shape="798.40,586.40 798.40,0.00"/>
    </edge>
    <edge id="road_1_2_3" from="intersection_1_2" to="intersection_1_1" priority="-1">
        <lane id="road_1_2_3_0" index="0" speed="11.11" length="586.40" shape="792.00,1200.00 792.00,613.60"/>
        <lane id="road_1_2_3_1" index="1" speed="11.11" length="586.40" shape="795.20,1200.00 795.20,613.60"/>
        <lane id="road_1_2_3_2" index="2" speed="11.11" length="586.40" shape="798.40,1200.00 798.40,613.60"/>
    </edge>
    <edge id="road_2_0_1" from="intersection_2_0" to="intersection_2_1" priority="-1">
        <lane id="road_2_0_1_0" index="0" speed="11.11" length="586.40" shape="1608.00,0.00 1608.00,586.40"/>
        <lane id="road_2_0_1_1" index="1" speed="11.11" length="586.40" shape="1604.80,0.00 1604.80,586.40"/>
        <lane id="road_2_0_1_2" index="2" speed="11.11" length="586.40" shape="1601.60,0.00 1601.60,586.40"/>
    </edge>
    <edge id="road_2_1_0" from="intersection_2_1" to="intersection_3_1" priority="-1">
        <lane id="road_2_1_0_0" index="0" speed="11.11" length="772.80" shape="1613.60,592.00 2386.40,592.00"/>
        <lane id="road_2_1_0_1" index="1" speed="11.11" length="772.80" shape="1613.60,595.20 2386.40,595.20"/>
        <lane id="road_2_1_0_2" index="2" speed="11.11" length="772.80" shape="1613.60,598.40 2386.40,598.40"/>
    </edge>
    <edge id="road_2_1_1" from="intersection_2_1" to="intersection_2_2" priority="-1">
        <lane id="road_2_1_1_0" index="0" speed="11.11" length="586.40" shape="1608.00,613.60 1608.00,1200.00"/>
        <lane id="road_2_1_1_1" index="1" speed="11.11" length="586.40" shape="1604.80,613.60 1604.80,1200.00"/>
        <lane id="road_2_1_1_2" index="2" speed="11.11" length="586.40" shape="1601.60,613.60 1601.60,1200.00"/>
    </edge>
    <edge id="road_2_1_2" from="intersection_2_1" to="intersection_1_1" priority="-1">
        <lane id="road_2_1_2_0" index="0" speed="11.11" length="772.80" shape="1586.40,608.00 813.60,608.00"/>
        <lane id="road_2_1_2_1" index="1" speed="11.11" length="772.80" shape="1586.40,604.80 813.60,604.80"/>
        <lane id="road_2_1_2_2" index="2" speed="11.11" length="772.80" shape="1586.40,601.60 813.60,601.60"/>
    </edge>
    <edge id="road_2_1_3" from="intersection_2_1" to="intersection_2_0" priority="-1">
        <lane id="road_2_1_3_0" index="0" speed="11.11" length="586.40" shape="1592.00,586.40 1592.00,0.00"/>
        <lane id="road_2_1_3_1" index="1" speed="11.11" length="586.40" shape="1595.20,586.40 1595.20,0.00"/>
        <lane id="road_2_1_3_2" index="2" speed="11.11" length="586.40" shape="1598.40,586.40 1598.40,0.00"/>
    </edge>
    <edge id="road_2_2_3" from="intersection_2_2" to="intersection_2_1" priority="-1">
        <lane id="road_2_2_3_0" index="0" speed="11.11" length="586.40" shape="1592.00,1200.00 1592.00,613.60"/>
        <lane id="road_2_2_3_1" index="1" speed="11.11" length="586.40" shape="1595.20,1200.00 1595.20,613.60"/>
        <lane id="road_2_2_3_2" index="2" speed="11.11" length="586.40" shape="1598.40,1200.00 1598.40,613.60"/>
    </edge>
    <edge id="road_3_0_1" from="intersection_3_0" to="intersection_3_1" priority="-1">
        <lane id="road_3_0_1_0" index="0" speed="11.11" length="586.40" shape="2408.00,0.00 2408.00,586.40"/>
        <lane id="road_3_0_1_1" index="1" speed="11.11" length="586.40" shape="2404.80,0.00 2404.80,586.40"/>
        <lane id="road_3_0_1_2" index="2" speed="11.11" length="586.40" shape="2401.60,0.00 2401.60,586.40"/>
    </edge>
    <edge id="road_3_1_0" from="intersection_3_1" to="intersection_4_1" priority="-1">
        <lane id="road_3_1_0_0" index="0" speed="11.11" length="786.40" shape="2413.60,592.00 3200.00,592.00"/>
        <lane id="road_3_1_0_1" index="1" speed="11.11" length="786.40" shape="2413.60,595.20 3200.00,595.20"/>
        <lane id="road_3_1_0_2" index="2" speed="11.11" length="786.40" shape="2413.60,598.40 3200.00,598.40"/>
    </edge>
    <edge id="road_3_1_1" from="intersection_3_1" to="intersection_3_2" priority="-1">