<?xml version="1.0" encoding="UTF-8"?>

<!-- generated on 2024-12-09 10:52:52 by Eclipse SUMO netedit Version 1.21.0
<neteditConfiguration xmlns:xsi="http://www.w3.org/2001/XMLSchema-instance" xsi:noNamespaceSchemaLocation="http://sumo.dlr.de/xsd/neteditConfiguration.xsd">

    <input>
        <sumocfg-file value="/home/local/ASURITE/jturnau/UGAT_current/data/raw_data/hangzhou_1x3/modified_from_4x4/sumo1x3.sumocfg"/>
        <additional-files value="/home/local/ASURITE/jturnau/UGAT_current/data/raw_data/hangzhou_1x3/modified_from_4x4/sumo1x3.add.xml"/>
        <route-files value="/home/local/ASURITE/jturnau/UGAT_current/data/raw_data/hangzhou_1x3/modified_from_4x4/sumo1x3.rou.xml"/>
        <data-files value="/home/local/ASURITE/jturnau/UGAT_current/data/raw_data/hangzhou_1x3/modified_from_4x4/test.dat.xml"/>
        <sumo-net-file value="/home/local/ASURITE/jturnau/UGAT_current/data/raw_data/hangzhou_1x3/modified_from_4x4/hangzhou_1x3_reduced_from_4x4.net.xml"/>
    </input>

    <processing>
        <geometry.min-radius.fix.railways value="false"/>
        <geometry.max-grade.fix value="false"/>
        <offset.disable-normalization value="true"/>
        <lefthand value="0"/>
    </processing>

    <junctions>
        <no-turnarounds value="true"/>
        <junctions.corner-detail value="5"/>
        <junctions.limit-turn-speed value="5.50"/>
        <rectangular-lane-cut value="0"/>
    </junctions>

    <pedestrian>
        <walkingareas value="0"/>
    </pedestrian>

</neteditConfiguration>
-->

<nodes version="1.20" xmlns:xsi="http://www.w3.org/2001/XMLSchema-instance" xsi:noNamespaceSchemaLocation="http://sumo.dlr.de/xsd/nodes_file.xsd">
    <location netOffset="800.00,600.00" convBoundary="0.00,0.00,3200.00,1200.00" origBoundary="-800.00,-600.00,3200.00,2400.00" projParameter="!"/>

    <node id="intersection_0_1" x="0.00" y="600.00" type="priority"/>
    <node id="intersection_1_0" x="800.00" y="0.00" type="priority"/>
    <node id="intersection_1_1" x="800.00" y="600.00" type="traffic_light_right_on_red" tl="intersection_1_1"/>
    <node id="intersection_1_2" x="800.00" y="1200.00" type="priority"/>
    <node id="intersection_2_0" x="1600.00" y="0.00" type="priority"/>
    <node id="intersection_2_1" x="1600.00" y="600.00" type="traffic_light_right_on_red" tl="intersection_2_1"/>
    <node id="intersection_2_2" x="1600.00" y="1200.00" type="priority"/>
    <node id="intersection_3_0" x="2400.00" y="0.00" type="priority"/>
    <node id="intersection_3_1" x="2400.00" y="600.00" type="traffic_light_right_on_red" tl="intersection_3_1"/>
    <node id="intersection_3_2" x="2400.00" y="1200.00" type="priority"/>
    <node id="intersection_4_1" x="3200.00" y="600.00" type="priority"/>
</nodes>
