<?xml version="1.0" encoding="UTF-8"?>

<!-- generated on 2024-12-09 10:52:52 by Eclipse SUMO netedit Version 1.21.0
<neteditConfiguration xmlns:xsi="http://www.w3.org/2001/XMLSchema-instance" xsi:noNamespaceSchemaLocation="http://sumo.dlr.de/xsd/neteditConfiguration.xsd">

    <input>
        <sumocfg-file value="/home/local/ASURITE/jturnau/UGAT_current/data/raw_data/hangzhou_1x3/modified_from_4x4/sumo1x3.sumocfg"/>
        <additional-files value="/home/local/ASURITE/jturnau/UGAT_current/data/raw_data/hangzhou_1x3/modified_from_4x4/sumo1x3.add.xml"/>
        <route-files value="/home/local/ASURITE/jturnau/UGAT_current/data/raw_data/hangzhou_1x3/modified_from_4x4/sumo1x3.rou.xml"/>
        <data-files value="/home/local/ASURITE/jturnau/UGAT_current/data/raw_data/hangzhou_1x3/modified_from_4x4/test.dat.xml"/>
        <sumo-net-file value="/home/local/ASURITE/jturnau/UGAT_current/data/raw_data/hangzhou_1x3/modified_from_4x4/hangzhou_1x3_reduced_from_4x4.net.xml"/>
    </input>

    <processing>
        <geometry.min-radius.fix.railways value="false"/>
        <geometry.max-grade.fix value="false"/>
        <offset.disable-normalization value="true"/>
        <lefthand value="0"/>
    </processing>

    <junctions>
        <no-turnarounds value="true"/>
        <junctions.corner-detail value="5"/>
        <junctions.limit-turn-speed value="5.50"/>
        <rectangular-lane-cut value="0"/>
    </junctions>

    <pedestrian>
        <walkingareas value="0"/>
    </pedestrian>

</neteditConfiguration>
-->

<edges version="1.20" xmlns:xsi="http://www.w3.org/2001/XMLSchema-instance" xsi:noNamespaceSchemaLocation="http://sumo.dlr.de/xsd/edges_file.xsd">
    <edge id="road_0_1_0" from="intersection_0_1" to="intersection_1_1" priority="-1" numLanes="3" speed="11.11"/>
    <edge id="road_1_0_1" from="intersection_1_0" to="intersection_1_1" priority="-1" numLanes="3" speed="11.11"/>
    <edge id="road_1_1_0" from="intersection_1_1" to="intersection_2_1" priority="-1" numLanes="3" speed="11.11"/>
    <edge id="road_1_1_1" from="intersection_1_1" to="intersection_1_2" priority="-1" numLanes="3" speed="11.11"/>
    <edge id="road_1_1_2" from="intersection_1_1" to="intersection_0_1" priority="-1" numLanes="3" speed="11.11"/>
    <edge id="road_1_1_3" from="intersection_1_1" to="intersection_1_0" priority="-1" numLanes="3" speed="11.11"/>
    <edge id="road_1_2_3" from="intersection_1_2" to="intersection_1_1" priority="-1" numLanes="3" speed="11.11"/>
    <edge id="road_2_0_1" from="intersection_2_0" to="intersection_2_1" priority="-1" numLanes="3" speed="11.11"/>
    <edge id="road_2_1_0" from="intersection_2_1" to="intersection_3_1" priority="-1" numLanes="3" speed="11.11"/>
    <edge id="road_2_1_1" from="intersection_2_1" to="intersection_2_2" priority="-1" numLanes="3" speed="11.11"/>
    <edge id="road_2_1_2" from="intersection_2_1" to="intersection_1_1" priority="-1" numLanes="3" speed="11.11"/>
    <edge id="road_2_1_3" from="intersection_2_1" to="intersection_2_0" priority="-1" numLanes="3" speed="11.11"/>
    <edge id="road_2_2_3" from="intersection_2_2" to="intersection_2_1" priority="-1" numLanes="3" speed="11.11"/>
    <edge id="road_3_0_1" from="intersection_3_0" to="intersection_3_1" priority="-1" numLanes="3" speed="11.11"/>
    <edge id="road_3_1_0" from="intersection_3_1" to="intersection_4_1" priority="-1" numLanes="3" speed="11.11"/>
    <edge id="road_3_1_1" from="intersection_3_1" to="intersection_3_2" priority="-1" numLanes="3" speed="11.11"/>
    <edge id="road_3_1_2" from="intersection_3_1" to="intersection_2_1" priority="-1" numLanes="3" speed="11.11"/>
    <edge id="road_3_1_3" from="intersection_3_1" to="intersection_3_0" priority="-1" numLanes="3" speed="11.11"/>
    <edge id="road_3_2_3" from="intersection_3_2" to="intersection_3_1" priority="-1" numLanes="3" speed="11.11"/>
    <edge id="road_4_1_2" from="intersection_4_1" to="intersection_3_1" priority="-1" numLanes="3" speed="11.11"/>
</edges>
